Flow Title=ev2022
Program Version=5.07
Use Restart= 0 
Boundary Location=                ,                ,        ,        ,                ,Perimeter 1     ,                ,BC Line 17                      
Interval=1HOUR
Flow Hydrograph= 120 
       0       0       0       0       07.391913 953.5891541.7241369.1241542.473
1722.4821215.448627.0652387.0733219.0762111.803538.243719.6288753.341782  2.7416
3.9844583.630773 2.248813.4551655.91701910.0317211.4701811.1388522.37856 24.5027
16.625847.5857382.9829981.061957.3505404.1060421   .02883.353307.2753166   .0131
 .000659.00003752.74E-064.04E-07.570257218.2867438.0189818.496686.77488747.55199
42.5316321.5486913.124119.4308095.1924662.125081.7568922.5066963.5462471.3951761
.1932791   .0706   .0207  .00513   .0011 .000211.00003675.86E-06 8.7E-071.21E-07
1.59E-081.99E-092.37E-102.71E-112.99E-123.18E-133.28E-142.94E-08 .1302861.360279
1.272051.6349885.2210399   .0601   .0136  .00266 .000465.0000737.00001071.46E-06
1.86E-072.25E-082.59E-092.85E-103.02E-113.09E-123.06E-132.94E-142.75E-152.51E-16
2.23E-171.95E-181.66E-191.39E-201.15E-21 9.3E-237.41E-245.83E-254.51E-263.45E-27
2.61E-281.95E-291.44E-301.05E-317.59E-335.43E-343.85E-352.71E-361.89E-371.31E-38
Stage Hydrograph TW Check=0
DSS Path=
Use DSS=False
Use Fixed Start Time=True
Fixed Start Date/Time=24nov2022,00:00
Is Critical Boundary=False
Critical Boundary Flow=
Boundary Location=                ,                ,        ,        ,                ,Perimeter 1     ,                ,BC Line 19                      
Interval=1HOUR
Flow Hydrograph= 120 
       0       0       0       0       0 82.1555614.8411396.894838.632142.293008
.1077714  .00506 .000238.00001125.26E-072.47E-081.16E-095.46E-112.57E-121.21E-13
5.67E-152.66E-161.25E-175.89E-192.77E-20 1.3E-216.11E-23  .00553  .00026.0000122
5.75E-07 2.7E-081.27E-095.97E-112.81E-121.32E-13 6.2E-158.28278929.517831.387338
   .0652  .00306 .0001446.77E-063.18E-07 1.5E-087.03E-10 3.3E-111.55E-12 7.3E-14
3.43E-151.61E-167.58E-183.56E-191.67E-207.87E-22 3.7E-231.74E-248.17E-263.84E-27
 1.8E-288.48E-303.99E-311.87E-32 8.8E-344.14E-351.94E-369.14E-384.30E-392.02E-40
9.47E-424.45E-432.10E-441.40E-45       0       0       0       0       0       0
       0       0       0       0       0       0       0       0       0       0
       0       0       0       0       0       0       0       0       0       0
       0       0       0       0       0       0       0       0       0       0
       0       0       0       0       0       0       0       0       0       0
Stage Hydrograph TW Check=0
DSS Path=
Use DSS=False
Use Fixed Start Time=True
Fixed Start Date/Time=24nov2022,00:00
Is Critical Boundary=False
Critical Boundary Flow=
Boundary Location=                ,                ,        ,        ,                ,Perimeter 1     ,                ,BC Line 20                      
Interval=1HOUR
Flow Hydrograph= 120 
       0       0       0       0       0180.8479625.47141038.513 620.04379.40739
7.144364.4961593   .0308   .0018 .0001015.55E-062.98E-071.57E-08 8.2E-104.24E-11
2.17E-12 1.1E-135.59E-152.81E-161.41E-177.04E-19 3.5E-20   .0671   .0408  .00368
 .000256 .0000169.34E-075.25E-082.87E-091.54E-108.14E-12 .3375277.96385128.57651
  2.6686.1877229   .0117 .000689.00003892.13E-061.14E-076.05E-093.16E-101.63E-11
8.38E-134.26E-142.16E-151.09E-165.45E-182.72E-191.35E-206.72E-223.32E-231.64E-24
8.07E-263.97E-271.95E-289.52E-304.66E-312.27E-321.11E-335.39E-352.62E-361.27E-37
6.17E-392.99E-401.45E-417.00E-433.36E-441.40E-45       0       0       0       0
       0       0       0       0       0       0       0       0       0       0
       0       0       0       0       0       0       0       0       0       0
       0       0       0       0       0       0       0       0       0       0
       0       0       0       0       0       0       0       0       0       0
Stage Hydrograph TW Check=0
DSS Path=
Use DSS=False
Use Fixed Start Time=True
Fixed Start Date/Time=24nov2022,00:00
Is Critical Boundary=False
Critical Boundary Flow=
Boundary Location=                ,                ,        ,        ,                ,Perimeter 1     ,                ,BC Line 21                      
Interval=1HOUR
Flow Hydrograph= 120 
       0       0       0       0       0123.6421283.0163522.4064405.1951118.5982
13.889021.219074   .0921  .00635 .000412.00002561.53E-068.95E-085.12E-092.87E-10
1.59E-11 8.7E-13 4.7E-142.52E-151.34E-167.08E-183.71E-19  .00338 .0001587.47E-06
3.51E-071.65E-087.76E-103.65E-111.71E-12.5928535   .0686  .003353.2369092.937849
.3480045   .0299  .00221  .000159.65E-065.92E-073.52E-082.04E-091.16E-106.48E-12
3.57E-131.95E-141.05E-155.61E-172.97E-181.57E-198.19E-214.26E-222.21E-231.14E-24
5.85E-262.99E-271.52E-287.75E-303.93E-311.98E-32   1E-335.03E-352.52E-361.26E-37
 6.3E-393.15E-401.57E-417.80E-433.92E-441.40E-45       0       0       0       0
       0       0       0       0       0       0       0       0       0       0
       0       0       0       0       0       0       0       0       0       0
       0       0       0       0       0       0       0       0       0       0
       0       0       0       0       0       0       0       0       0       0
Stage Hydrograph TW Check=0
DSS Path=
Use DSS=False
Use Fixed Start Time=True
Fixed Start Date/Time=24nov2022,00:00
Is Critical Boundary=False
Critical Boundary Flow=
Boundary Location=                ,                ,        ,        ,                ,Perimeter 1     ,                ,BC Line 22                      
Interval=1HOUR
Flow Hydrograph= 120 
       0       0       0       0       042.67284136.7445145.6185 229.286283.1154
138.135722.249052.468422.2251596   .0181  .00134.00009436.29E-064.04E-072.52E-08
1.54E-099.16E-115.37E-12 3.1E-131.76E-149.94E-16.6868039.2801778   .0758.3172756
.1678008 .021564  .00196 .000173.399346212.2038311.493672.607072.6917301   .0855
   .0452  .00588 .000538.00004172.92E-061.91E-071.19E-087.19E-104.22E-112.42E-12
1.36E-137.56E-154.14E-162.24E-17 1.2E-186.41E-203.39E-211.78E-229.29E-244.82E-25
2.49E-261.28E-276.57E-293.36E-301.71E-318.67E-334.39E-342.22E-351.12E-36 5.6E-38
2.81E-391.41E-407.02E-423.50E-431.68E-441.40E-45       0       0       0       0
       0       0       0       0       0       0       0       0       0       0
       0       0       0       0       0       0       0       0       0       0
       0       0       0       0       0       0       0       0       0       0
       0       0       0       0       0       0       0       0       0       0
Stage Hydrograph TW Check=0
DSS Path=
Use DSS=False
Use Fixed Start Time=True
Fixed Start Date/Time=24nov2022,00:00
Is Critical Boundary=False
Critical Boundary Flow=
Boundary Location=                ,                ,        ,        ,                ,Perimeter 1     ,                ,BC Line 23                      
Interval=1HOUR
Flow Hydrograph= 120 
       0       0       0       0       0402.8698699.0563574.6649734.7178584.6753
336.0471159.744730.680794.016008.4238102   .0389  .00324  .00025.00001841.29E-06
8.69E-085.69E-093.64E-102.27E-111.39E-12 8.4E-144.99E-15.9712097.97921251.587898
.3888087.1796176   .0294  .00333 .000309.36962319.61961413.363983.356686 3.98686
3.060917.4442061   .0445  .00374.0002828.00001991.33E-06 8.5E-085.28E-09 3.2E-10
 1.9E-111.11E-126.36E-14 3.6E-152.02E-161.12E-176.16E-193.36E-201.82E-21 9.8E-23
5.24E-242.79E-251.48E-267.77E-284.08E-292.13E-301.11E-315.76E-332.98E-341.54E-35
 7.9E-374.05E-382.06E-391.05E-405.36E-422.74E-431.40E-441.40E-45       0       0
       0       0       0       0       0       0       0       0       0       0
       0       0       0       0       0       0       0       0       0       0
       0       0       0       0       0       0       0       0       0       0
       0       0       0       0       0       0       0       0       0       0
Stage Hydrograph TW Check=0
DSS Path=
Use DSS=False
Use Fixed Start Time=True
Fixed Start Date/Time=24nov2022,00:00
Is Critical Boundary=False
Critical Boundary Flow=
Boundary Location=                ,                ,        ,        ,                ,Perimeter 1     ,                ,BC Line 24                      
Interval=1HOUR
Flow Hydrograph= 120 
       0       0       0       0       0121.6673 325.969349.4214129.407431.54567
5.204838.5692772   .0505  .00395 .000285.00001941.27E-067.97E-084.88E-092.92E-10
1.72E-119.93E-135.66E-143.19E-151.78E-16 9.8E-185.37E-191.320257  .44207.7935483
   .0545   .0584  .0079930.893457.7016957.7707511.6562112.068886.6397403   .0866
  .00867 .000736.00005654.03E-062.73E-071.77E-081.11E-096.83E-114.09E-122.41E-13
1.39E-147.97E-16 4.5E-172.51E-181.39E-197.62E-214.15E-222.24E-23 1.2E-246.43E-26
3.42E-271.81E-289.52E-304.99E-31 2.6E-321.36E-337.03E-353.63E-361.87E-379.63E-39
4.93E-402.53E-411.29E-426.58E-442.80E-45       0       0       0       0       0
       0       0       0       0       0       0       0       0       0       0
       0       0       0       0       0       0       0       0       0       0
       0       0       0       0       0       0       0       0       0       0
       0       0       0       0       0       0       0       0       0       0
Stage Hydrograph TW Check=0
DSS Path=
Use DSS=False
Use Fixed Start Time=True
Fixed Start Date/Time=24nov2022,00:00
Is Critical Boundary=False
Critical Boundary Flow=
Boundary Location=                ,                ,        ,        ,                ,Perimeter 1     ,                ,BC Line 25                      
Interval=1HOUR
Flow Hydrograph= 120 
       0       0       0       0       0132.6597235.6939669.57081745.5542676.352
2313.7761666.5561599.3161760.6771463.005  837.37 490.702277.7489 147.50557.89795
17.105615.1601772.9922573.7138263.8263132.7377342.9454364.8092648.89764711.74192
11.2673221.0324825.24628 19.162310.02903 4.347751.679733.5966666.1979401.6506707
3.1934661.086084.2263767   .0325   .0037 .000361.0000318 .2292496.46588438.86037
 24.2286 9.1539441.7504642.9868924.6387214.4483311.091587.2033833.4449741.330216
.5968094 .563463.4733415.2738157.1168908   .0395   .0111  .00271 .000583 .000113
.0000201.00000335.07E-077.32E-08   1E-081.31E-091.63E-101.95E-112.25E-122.51E-13
3.81E-09   .07261.1963031.308142.7545558.3015236   .0936    .024  .00533  .00104
 .000185.00003034.57E-066.47E-078.64E-08 1.1E-081.33E-091.54E-101.72E-111.86E-12
1.95E-131.98E-141.95E-151.88E-161.77E-171.63E-181.47E-19 1.3E-201.13E-219.63E-23
 8.1E-24 6.7E-255.46E-26 4.4E-273.49E-282.74E-292.12E-301.63E-311.23E-329.26E-34
Stage Hydrograph TW Check=0
DSS Path=
Use DSS=False
Use Fixed Start Time=True
Fixed Start Date/Time=24nov2022,00:00
Is Critical Boundary=False
Critical Boundary Flow=
Boundary Location=                ,                ,        ,        ,                ,Perimeter 1     ,                ,BC Line 26                      
Interval=1HOUR
Flow Hydrograph= 120 
       0       0       0       0       0 188.841 440.895 770.9331223.717 810.731
 135.979   15.52   1.371    .105    .007       0       0       0       0       0
       0       0       0       0       0       0       0       0    .055    .059
    .008    .001       0       0       0       0       0       0    .143   7.752
  27.621   3.843     .36    .028    .002       0       0       0       0       0
       0       0       0       0       0       0       0       0       0       0
       0       0       0       0       0       0       0       0       0       0
       0       0       0       0       0       0       0       0       0       0
       0       0       0       0       0       0       0       0       0       0
       0       0       0       0       0       0       0       0       0       0
       0       0       0       0       0       0       0       0       0       0
       0       0       0       0       0       0       0       0       0       0
Stage Hydrograph TW Check=0
Flow Hydrograph Slope= 0.01 
DSS Path=
Use DSS=False
Use Fixed Start Time=True
Fixed Start Date/Time=24nov2022,00:00
Is Critical Boundary=False
Critical Boundary Flow=
Boundary Location=                ,                ,        ,        ,                ,Perimeter 1     ,                ,BC Line 28                      
Friction Slope=0.015,-1
